  fates_paramfile ='/cluster/home/marlam/single_cell_experiment/Running_scripts/frost_pfts/param_file_BDE.nc'
  hist_mfilt=365
  use_bedrock = .true.
  hist_nhtfrq=-24
  use_fates_planthydro = .false.
  use_fates_frosthard = .true.
  use_fates_hydrohard = .false.
/
&ndepdyn_nml
  ndepmapalgo = 'nn'
/
&popd_streams
  popdensmapalgo = 'nn'
/
&light_streams
  lightngmapalgo = 'nn'
/
